42
-1  1
C -5.0665981484  0.5989137587 -0.592093485
N -3.8555857733  0.0225004312 -0.9333666791
C -2.6490894415  0.6504156366 -0.9339441561
O -2.4125678438  1.8065943589 -0.6465531483
O -1.6908826696 -0.2216585543 -1.3102250781
C -5.2163830562  1.9368114266 -0.176139125
C -6.4721920904  2.4216221733  0.1447381542
C -7.5792392879  1.5799797694  0.0602204382
C -7.447540517  0.2488615936 -0.3500915753
C -6.1995158075 -0.2391111909 -0.6747090228
H -3.8690611431 -0.9989906972 -1.2305616508
H -4.352686214  2.5785381125 -0.1045139776
C -9.7493439704  2.8088070132 -1.2657470181
H -8.3173632348 -0.395953026 -0.4032266654
H -6.0867585743 -1.2769757616 -0.9926433752
F -9.8084455131  1.7970360652 -2.1214336746
F -10.9625045863  3.3369460508 -1.1414738796
F -8.9299461152  3.7343475853 -1.752655464
S -9.1605377362  2.2251474114  0.4069439347
O -9.0605667827  3.4456287189  1.1878773478
O -10.0913775815  1.17049635  0.7607670122
H -6.5985882444  3.4471107854  0.4724499731
O -5.9411181149 -3.2290392525 -1.6283684362
O -3.8099884374 -2.530572891 -1.7081481077
C -4.7291741598 -3.385675773 -1.8529327443
C -4.294915466 -4.7744982092 -2.3612883587
C -2.8067702926 -4.9067642346 -2.6559709139
H -4.8952188704 -4.991264466 -3.2505497353
H -4.6132581578 -5.5022721232 -1.6077899413
H -2.4977877664 -4.1849180103 -3.414009956
H -2.5560768119 -5.912380497 -3.0095302952
H -2.2167426647 -4.6940775667 -1.7630794033
C -0.3720950922  0.3014476952 -1.4085631954
C -0.1537506075  1.0406196334 -2.7188895248
C  1.2872075641  1.5282238555 -2.8395796583
H  0.2769122648 -0.5740653923 -1.3454500859
H -0.1708232886  0.9569636616 -0.5576864599
H -0.8455415601  1.8848885137 -2.7643183349
H -0.4025456961  0.3675409095 -3.5441792051
H  1.5376913749  2.2185454387 -2.0295192605
H  1.452250521  2.0519421732 -3.7831341984
H  1.993569593  0.6941185243 -2.7957110702


