31

C         -6.03378        1.19505        0.21962
N         -4.76399        0.54041        0.07803
C         -3.51367        1.08853        0.14561
O         -3.33714        2.26786        0.40777
O         -2.33285        0.17875       -0.09405
C         -0.95472        0.84151        0.04038
C          0.13733       -0.21583       -0.18153
C          1.53901        0.37757       -0.11833
C         -6.20591        2.59762        0.24683
C         -7.49094        3.16876        0.34746
C         -8.60917        2.32267        0.43553
C         -8.45199        0.93812        0.41412
C         -7.17846        0.38210        0.30117
H         -4.79879       -0.47684       -0.09416
H         -0.84194        1.27577        1.05867
H         -0.85722        1.65558       -0.71154
H          0.00372       -0.69085       -1.17798
H          0.04597       -1.00177        0.60052
H          1.67478        1.12629       -0.92705
H          2.28421       -0.43468       -0.25911
H          1.71679        0.85771        0.86661
H         -5.37055        3.26830        0.16607
Cl        -9.85750       -0.10775        0.51451
H         -7.07942       -0.69655        0.27799
S         -7.70572        4.97784        0.33397
H         -9.60680        2.73561        0.51193
F         -6.63040        5.11034       -0.99289
F         -9.00691        4.83176       -0.77077
F         -6.40893        5.16108        1.43738
F         -8.78643        4.87854        1.65859
F         -7.90766        6.67579        0.31644
