42
-1  1
C -5.9675657054  1.248167435  0.2197165352
N -4.7391292346  0.6227328557  0.0644499675
C -3.495876992  1.2054754238  0.24165889
O -3.3446105526  2.3880053507  0.5735098408
N -2.4669971153  0.3662826807  0.0340865144
C -1.0915848964  0.819871711  0.1829250046
C -0.1280666565 -0.3183022782 -0.1130963738
C  1.3191127955  0.1342194105  0.0368499669
C -6.1498908803  2.6337041132  0.1208926766
C -7.4316295465  3.1338531942  0.2704093136
C -8.5569237681  2.35822639  0.49609617
C -8.3397979014  0.9885249683  0.5684472306
C -7.0830318115  0.4275073181  0.4414364519
H -4.7632652153 -0.404112066 -0.0219652655
H -2.6365042576 -0.5874242672 -0.2978350689
H -0.9345666409  1.1885200167  1.2011386387
H -0.9019905829  1.6572564335 -0.4961536604
H -0.3035519404 -0.6851839807 -1.1293355815
H -0.3340988936 -1.1521963252  0.5652754232
H  1.546891585  0.9543949146 -0.6490752048
H  2.011810508 -0.6818841708 -0.1771107431
H  1.5178650295  0.4838732921  1.0533492198
H -5.3106508771  3.2809289086 -0.0770376231
Cl -9.7058088058 -0.0597831591  0.8445242654
H -6.9532787958 -0.6459386699  0.5155460016
S -7.6509018416  4.9252914739  0.1556288089
H -9.5480839473  2.7758441153  0.6085258892
F -6.7248689511  5.0454055468 -1.1650064561
F -8.9621356054  4.7929581593 -0.7829037653
F -6.3623255145  5.2333789632  1.083162543
F -8.6000584741  4.9796669436  1.4650483817
F -7.8501934603  6.5290232807  0.0542707977
O -4.870634025 -2.2105942691 -0.0925417984
O -2.7986935119 -2.3656329257 -0.8967545411
C -3.8805435734 -2.8775826297 -0.5122450187
C -4.0433364641 -4.3928935223 -0.540213722
C -2.8358089818 -5.1625968493 -1.0502432444
H -4.9274340641 -4.6067119071 -1.1484773362
H -4.3018446191 -4.7032255028  0.4767914162
H -2.5869906583 -4.8780673826 -2.074595321
H -3.0331986708 -6.2367037206 -1.0398829049
H -1.9562964851 -4.9779592734 -0.4300563181


