42
-1  1
C -5.9045093897  1.2282887688  0.12049026
N -4.6710096993  0.633351127  0.0313284384
C -3.4317655407  1.2671903556  0.0362466067
O -3.2854284276  2.4815325862  0.1241858856
N -2.4049528736  0.3955909678 -0.063943346
C -1.0425860058  0.8776075148 -0.099063818
C -0.080360313 -0.3026623514 -0.1269399163
C  1.3727067572  0.1576632454 -0.1794023202
C -6.1153042472  2.6152485886  0.2381957195
C -7.4190980535  3.0695549678  0.3198824395
C -8.5410417441  2.2559390699  0.2946689127
C -8.2943634739  0.8937008966  0.1771166561
C -7.0220518714  0.3683277318  0.0905940952
H -4.6878730831 -0.4047451107 -0.0509292329
H -2.5734755126 -0.6166282054 -0.1684113685
H -0.850210432  1.508851393  0.7761289847
H -0.88741397  1.5157143614 -0.9786049853
H -0.3138463615 -0.9366727117 -0.9872004235
H -0.2538557762 -0.9247930754  0.7560174928
H  1.5645440827  0.757434637 -1.0737735278
H  2.060296159 -0.6909495173 -0.1950435924
H  1.6237324033  0.7736384372  0.6890241965
H -5.2677869312  3.282758082  0.2617600337
Cl -9.6658788981 -0.1934819008  0.1381696717
H -6.8592887915 -0.7011257547 -0.0011469945
S -7.685780516  4.8534671703  0.470648159
H -9.5466189723  2.6441390828  0.3609738792
F -6.6245143298  5.2097021176 -0.69189603
F -8.8821972654  4.8534396613 -0.627466357
F -6.5321031936  5.031616479  1.5850757346
F -8.7898776036  4.6747547333  1.6480421329
F -7.9419978524  6.4498180998  0.6061108801
O -4.9735653331 -2.0855751834 -0.1874971893
O -2.7643184358 -2.388901858 -0.3597880615
C -3.9450898416 -2.7981312439 -0.3280385747
C -4.1927985111 -4.3062542052 -0.4724967827
C -2.9264209328 -5.1364512608 -0.6275467971
H -4.8616268703 -4.4399832901 -1.3285123332
H -4.7696761294 -4.6216787312  0.4023985572
H -2.3620312266 -4.819817917 -1.506140048
H -3.1575522568 -6.2013678134 -0.7276914045
H -2.2694987355 -5.0037899449  0.2336843673


