42
-1  1
C -5.8986178237  1.2218869611  0.1250977418
N -4.6621281816  0.6267080842  0.0380103592
C -3.4245996895  1.2601940082  0.0413564305
O -3.2833694374  2.4769472606  0.1220405666
N -2.3921905452  0.3960325257 -0.0517184205
C -1.030372424  0.8886348112 -0.0872979027
C -0.0545330602 -0.2787569295 -0.1384057803
C  1.3910800103  0.2017519013 -0.1926497537
C -6.1118727419  2.6075007729  0.2386623281
C -7.416605136  3.0601735791  0.3200454135
C -8.5378173222  2.2463367309  0.2983118488
C -8.2886373236  0.8841133378  0.1837492254
C -7.0148468311  0.3617406511  0.0977971355
H -4.6818060254 -0.4103767827 -0.0441623794
H -2.5573556479 -0.6168921301 -0.143149884
H -0.8366821514  1.5068113302  0.7964122423
H -0.8874068833  1.538767152 -0.9589049845
H -0.2815707941 -0.8999243591 -1.0098808383
H -0.210206447 -0.9148472429  0.7380803407
H  1.5709845824  0.8166919019 -1.0791654654
H  2.0881938845 -0.6385971491 -0.225632716
H  1.6409963136  0.8059847797  0.6842849304
H -5.2672975062  3.2782099738  0.2600508906
Cl -9.655314097 -0.2075021441  0.1471358776
H -6.8522102209 -0.707481559  0.0082689595
S -7.6801995113  4.845089105  0.4645397591
H -9.5449412086  2.6320301942  0.36418169
F -6.6282643884  5.1935501428 -0.7102459509
F -8.8854264165  4.8429412878 -0.6218379421
F -6.5138936627  5.0272919936  1.5664471707
F -8.7710583034  4.6753577023  1.6537057411
F -7.9299137821  6.4424015553  0.5941599787
O -5.0026673854 -2.0926494496 -0.1911410033
O -2.7944521335 -2.3996946251 -0.3248421307
C -3.9752808219 -2.8103444401 -0.3246352358
C -4.2259783253 -4.3114422041 -0.5069513989
C -2.9640303434 -5.1554532705 -0.6002797219
H -4.840759372 -4.4245065108 -1.4058732354
H -4.8588594935 -4.6369750484  0.3242973042
H -2.3438377666 -4.8384703769 -1.4404810514
H -3.205070415 -6.2144564342 -0.7318854711
H -2.3576711716 -5.0524570867  0.3017153319


