10
-1  1
C -1.3532663986  0.4598710824 -0.0270554946
C -1.551998654 -1.0807416977  0.0463412293
C -0.2673237501 -1.8967710893  0.0072437075
O -0.1782384112  0.8754801289 -0.109765954
O -2.4096299357  1.1296630602  0.0051426726
H -2.2142935336 -1.3619346132 -0.7799262207
H -2.1166115204 -1.2915801352  0.9613173637
H  0.2906309932 -1.6987125337 -0.9104742418
H -0.4672653605 -2.9729070488  0.0619412142
H  0.3887185372 -1.6280659763  0.8379981846


