32

C         -6.00715        1.12439        0.15701
N         -4.73806        0.44980        0.05949
C         -3.48445        0.99684        0.05161
O         -3.30756        2.20121        0.13409
O         -2.28911        0.07498       -0.06034
C         -0.94369        0.81733       -0.05217
C          0.22711       -0.16568       -0.16740
C          1.56528        0.56758       -0.15695
C         -7.24993        0.47800        0.34234
C         -8.46458        1.20137        0.43002
C         -8.42563        2.62663        0.32704
C         -7.18270        3.25306        0.14372
C         -6.00449        2.52077        0.06127
H         -4.77578       -0.57948       -0.01159
H         -0.84751        1.39091        0.89636
H         -0.91083        1.52730       -0.90819
H          0.14043       -0.74068       -1.11515
H          0.20234       -0.87829        0.68579
H          1.62627        1.27232       -1.01351
H          2.39324       -0.16746       -0.24163
H          1.68793        1.13363        0.79104
H         -7.30249       -0.58793        0.42276
H         -5.07376        3.05638       -0.08078
C         -9.62287        3.56603        0.39709
C         -9.75858        0.42563        0.63055
H         -7.12165        4.33226        0.06243
F        -10.83816        2.94287        0.57731
F         -9.69481        4.29212       -0.77857
F         -9.44353        4.44655        1.44924
F         -9.55057       -0.94163        0.70214
F        -10.61339        0.65614       -0.43235
F        -10.35866        0.81253        1.81540
