32

C         -6.00715        1.12439        0.15701
N         -4.73806        0.44980        0.05949
C         -3.48445        0.99684        0.05161
O         -3.30756        2.20121        0.13409
O         -2.28911        0.07498       -0.06034
C         -0.94369        0.81733       -0.05217
C          0.22711       -0.16568       -0.16740
C          1.56528        0.56758       -0.15695
C         -6.16890        2.52504        0.25017
C         -7.44781        3.12663        0.34395
C         -8.60481        2.28707        0.34414
C         -8.42650        0.89772        0.25029
C         -7.16065        0.33162        0.15878
H         -4.77578       -0.57948       -0.01159
H         -0.84751        1.39091        0.89636
H         -0.91083        1.52730       -0.90819
H          0.14043       -0.74068       -1.11515
H          0.20234       -0.87829        0.68579
H          1.62627        1.27232       -1.01351
H          2.39324       -0.16746       -0.24163
H          1.68793        1.13363        0.79104
H         -5.31677        3.17258        0.25108
H         -7.08214       -0.74646        0.08882
C        -10.05261        2.75169        0.43778
C         -7.53130        4.64326        0.44028
H         -9.28490        0.23579        0.24778
F        -10.21815        4.11623        0.52929
F        -10.63649        2.18308        1.55596
F        -10.73735        2.32102       -0.68478
F         -6.28393        5.24449        0.42087
F         -8.14345        5.00509        1.62685
F         -8.24503        5.14297       -0.63422
