39
-1  1
C -6.0365933418  1.1775250664  0.264913109
N -4.7613219731  0.6254928481  0.1866354257
C -3.5989759291  1.3257181048  0.109932918
O -3.4637457678  2.532544668  0.0764181014
O -2.5593719076  0.4731672165  0.0718635533
C -1.2666039226  1.0687781141 -0.0165647598
C -0.2502657139 -0.0539639949 -0.0195295818
C  1.170096957  0.491857231 -0.1212681775
C -6.2954084602  2.5527814564  0.3117915518
C -7.612644026  2.9923527452  0.3952442065
C -8.6887430309  2.119314609  0.4377965412
C -8.4009117364  0.7598547334  0.3857293197
C -7.1123168719  0.2700449582  0.300800375
H -4.6846643674 -0.4244088888  0.2122483089
H -1.1164754822  1.7417544115  0.8327360557
H -1.2039400009  1.6672276202 -0.9305021366
H -0.4657718139 -0.7237185621 -0.8563812073
H -0.3712105048 -0.6422575321  0.8940103921
H  1.3106832219  1.0663856227 -1.0411485296
H  1.9039197759 -0.3165659257 -0.1214050408
H  1.4043278594  1.1508841482  0.7195253135
H -5.4823141755  3.261791878  0.2787971838
Cl -9.7392218168 -0.3675776188  0.4287956449
H -6.9287152359 -0.8057451374  0.2551466781
C -7.855417996  4.4673481202  0.5027158766
H -9.7093993809  2.4721977467  0.5017120745
F -9.1263639111  4.8052206307  0.2258716257
F -7.6033440158  4.9342046827  1.7427714267
F -7.07559202  5.1794418256 -0.3274270228
O -6.5613188982 -2.8590220881  0.1324775231
O -4.4743633791 -2.063172016  0.2967290494
C -5.3270817311 -2.9903658874  0.2314469901
C -4.7877511698 -4.4324610582  0.273889406
C -3.2793878505 -4.5492814135  0.4409104349
H -5.1156814154 -4.9223204274 -0.6490750586
H -5.3133080265 -4.9492834052  1.0831954045
H -2.7561858291 -4.0499486309 -0.3766147718
H -2.9618757973 -5.5967843081  0.4631978794
H -2.9501103149 -4.0727015433  1.366243917


