40
-1  1
C -6.264676096  1.1172935471 -0.0320154405
N -5.0008816413  0.5765702586 -0.0319468293
C -3.7895562085  1.2593484262 -0.043625806
O -3.6971385261  2.4830037881 -0.0639096051
N -2.7219415149  0.4316797443 -0.0240547593
C -1.3771274146  0.9670681342 -0.076060818
C -0.365434493 -0.1354225061  0.2071359108
C  1.065573011  0.3853271389  0.1387666041
C -6.5452388324  2.4958070336 -0.0321608002
C -7.8615416054  2.9213728722 -0.0292903009
C -8.9368510308  2.0330879712 -0.026008651
C -8.6454844581  0.6661553721 -0.0257314903
C -7.3442510364  0.2105615111 -0.0285242229
H -4.9699859985 -0.462167535 -0.0254591567
H -2.8430002987 -0.5905556503 -0.0692373
H -1.2793448775  1.7720585481  0.6590945409
H -1.1792904658  1.4157059098 -1.0584934788
H -0.5085794185 -0.9501781883 -0.5086947917
H -0.5699731165 -0.558619111  1.1953593463
H  1.2942954741  0.785758724 -0.8531044217
H  1.7874299146 -0.4070172399  0.3496908582
H  1.2310877402  1.1870034832  0.8644944943
H -5.7394646988  3.2130583688 -0.0347681063
Cl -8.1432444282  4.649816483 -0.0282433262
C -10.3558053138  2.5000249677 -0.0221193772
H -9.4583214488 -0.0496232941 -0.0231119682
H -7.1296236206 -0.8526749708 -0.0282446289
F -11.2206934784  1.4694777101 -0.021370963
F -10.6645823758  3.2470180151  1.0560433341
F -10.6702319239  3.2497286303 -1.0966790386
O -5.159507123 -2.1828486082 -0.028796413
O -2.9393294774 -2.3974275037 -0.1490979397
C -4.0996590324 -2.8603946659 -0.0929097063
C -4.2796171893 -4.3834788309 -0.1038989278
C -2.981571867 -5.1754429137 -0.1412264637
H -4.9103653342 -4.6245514244 -0.965649366
H -4.8742766791 -4.6435779526  0.7774199597
H -2.3963577675 -4.9259039729 -1.0281081748
H -3.1753854155 -6.2522360189 -0.1504920002
H -2.3597819333 -4.9483462511  0.7267692237


