43
-1  1
C -5.8218735408  1.3357042678  0.1679733234
N -4.6205676223  0.6506354597  0.0985516568
C -3.345846524  1.1910266496  0.1204808152
O -3.1224576266  2.4008874047  0.2498739327
N -2.3679339184  0.276302248  0.0012998859
C -0.9669954232  0.6706611979  0.0234845239
C -0.0750238503 -0.5553962542 -0.090648789
C  1.3983532755 -0.1678516029 -0.0693507467
C -6.9752235472  0.555924593  0.3732456128
C -8.2292691839  1.1304353069  0.4416239757
C -8.3785136829  2.5206715867  0.2978072538
C -7.2373304397  3.2862099476  0.094773155
C -5.9724185577  2.7182490301  0.0248397521
H -4.6884527835 -0.3768520321  0.1424233824
H -2.5970940697 -0.70773749 -0.1638832186
H -0.7517035937  1.2055899826  0.9533825844
H -0.7616612116  1.3613352168 -0.8008266954
H -0.3095290577 -1.0882625304 -1.0175639225
H -0.2961896219 -1.2405113351  0.733774307
H  1.6408089531  0.4992862442 -0.9006930113
H  2.0386080714 -1.0482962839 -0.1502138925
H  1.6553278264  0.3484256239  0.859338962
H -6.8652951728 -0.5166393287  0.4810529195
H -5.116721207  3.3512430489 -0.1465421704
C -9.6989066958  3.2290485874  0.3873448261
C -9.4001095676  0.1994788892  0.6372258417
H -7.327008106  4.3590514342 -0.0208793204
F -10.6806747581  2.5922473181 -0.2743765611
F -9.6369503359  4.466078248 -0.1273553882
F -10.1270338737  3.3760673607  1.6566737625
F -9.0190201115 -0.9993141827  1.0969640733
F -10.0628887663 -0.029806356 -0.5100774012
F -10.2957589476  0.6767153866  1.5156967162
O -4.9221773131 -2.168682245  0.3495068263
O -2.8765882511 -2.5457531855 -0.4479974413
C -3.9671693694 -2.9385927112  0.0388460839
C -4.1831968021 -4.428050993  0.2812741825
C -3.0019783553 -5.3169200456 -0.0736047275
H -5.0726730262 -4.716917289 -0.2870975265
H -4.4552195267 -4.5432234187  1.3348190802
H -2.7461896983 -5.2337982502 -1.1317527132
H -3.2339759661 -6.36380517  0.1337046854
H -2.115978021 -5.048984328  0.5056314043


