43
-1  1
C -6.2108666345  1.2563764244  0.2688863069
N -5.0068532913  0.6275522237  0.1037298486
C -3.7398354642  1.2125620716  0.0863422355
O -3.5433583267  2.4157515854  0.2196540115
N -2.7520822364  0.3128615063 -0.0946711563
C -1.3714484168  0.7503251422 -0.1439757204
C -0.4498028441 -0.4478504356 -0.3238615975
C  1.0127686613 -0.0238279517 -0.3895429861
C -6.3729174109  2.64339409  0.4826932912
C -7.6387325006  3.1743391683  0.6387006618
C -8.7574282631  2.3409226782  0.5865336063
C -8.6205078671  0.9637213482  0.3734912923
C -7.361823007  0.4308377038  0.2200182522
H -5.0615208862 -0.404376381 -0.0236789007
H -2.9555903503 -0.692335371 -0.2043398424
H -1.1191244629  1.2888898167  0.7766350537
H -1.2335775687  1.460695448 -0.9676216374
H -0.7315244875 -0.9840995056 -1.234819634
H -0.6062826215 -1.1480297394  0.5019527412
H  1.1917381179  0.6553162665 -1.2281651729
H  1.6707655359 -0.8865055101 -0.5161538901
H  1.3172234235  0.4935413059  0.5249070628
H -5.5025880188  3.278641631  0.5281569689
C -10.7719615153  3.4405466231 -1.0625814944
H -9.4974509003  0.327235066  0.3396655004
H -7.2255906132 -0.6340869615  0.0641446057
F -10.7685763001  2.3409169545 -1.8054350977
F -11.9824507119  3.9846060232 -1.1067368378
F -9.8967097611  4.3017643102 -1.5665640373
S -10.3457535362  3.0351682271  0.7080782725
O -10.3013407612  4.3319448716  1.3610952503
O -11.3265962668  2.0319984374  1.0837484226
H -7.7641920426  4.2373766355  0.8114173354
O -5.3896355472 -2.0854611822 -0.1908893583
O -3.1975647018 -2.4620878261 -0.3916583505
C -4.3889160475 -2.8376091327 -0.3344983062
C -4.6874226629 -4.337019576 -0.445478377
C -3.4571986667 -5.2166759143 -0.608756235
H -5.3770932592 -4.4656047899 -1.2857067173
H -5.2557527058 -4.6178099465  0.4467969974
H -2.8998258038 -4.9468000096 -1.5075203933
H -3.7337030593 -6.2727257558 -0.6813448453
H -2.7774562172 -5.0987395703  0.2370828713


