43
-1  1
C -6.2136337149  1.3165723408  0.3176629528
N -5.0046374851  0.6651234663  0.2001555509
C -3.7342692103  1.2261963335  0.1844546386
O -3.5216244956  2.4312966367  0.3564535573
N -2.7541507125  0.330391492 -0.0191788948
C -1.3606956555  0.7501965073 -0.06560808
C -0.4593934879 -0.4455067484 -0.3288193064
C  1.0055643572 -0.0291776347 -0.3735173903
C -6.376640145  2.7143656928  0.2625617197
C -7.6385578537  3.2677875768  0.3783680211
C -8.7441498099  2.4354788807  0.5520451552
C -8.6102619732  1.044280947  0.5939097658
C -7.3521891849  0.4970859031  0.4803506925
H -5.0485433818 -0.3651788201  0.2047232434
H -2.9789318916 -0.6432966952 -0.2465247762
H -1.0893650109  1.2235096098  0.8828186279
H -1.2256813802  1.500915696 -0.8509017646
H -0.7462773799 -0.9127042619 -1.2761592376
H -0.6144782853 -1.1945624327  0.4540385001
H  1.1808004733  0.7056016875 -1.1637503938
H  1.6534924576 -0.8865255962 -0.5652367156
H  1.3155162212  0.4191158585  0.5741016243
H -5.5245191337  3.3602493514  0.1277667886
C -10.8746365512  3.2252023275 -1.1439375928
H -9.4759885523  0.4054595191  0.7237692608
H -7.226870003 -0.5787288692  0.5205787163
F -10.8919566899  2.0106196811 -1.6691125706
F -12.0908726965  3.7449366033 -1.1945195202
F -10.0401099094  3.9893155017 -1.8302509588
S -10.3322792114  3.1383828042  0.6387478155
O -10.2685837276  4.5293692225  1.0651611292
O -11.2767436883  2.2213115532  1.2615926872
H -7.7595518365  4.3442087464  0.3363268161
O -5.1899633994 -2.1672266038  0.3291236633
O -3.2399233761 -2.4406313066 -0.7118062124
C -4.3075114144 -2.8881477874 -0.2209952929
C -4.5876841241 -4.3857542692 -0.2742909279
C -3.5025935045 -5.2254368883 -0.9292817751
H -5.5431519146 -4.5110540233 -0.7928064292
H -4.7647975402 -4.7124031822  0.7548845701
H -3.3400357136 -4.9257328564 -1.9665276447
H -3.7806934274 -6.2815331737 -0.9256262794
H -2.5519860369 -5.1277327897 -0.4010137337


