30
0  1
C -5.9861398926  1.4170036635  0.2432157165
N -4.7559912769  0.7704728309  0.119331522
C -3.4890179169  1.3429112401  0.1302585722
O -3.2908771231  2.5322450929  0.2859311947
N -2.4831047427  0.4354851434 -0.0284740892
C -1.1036542424  0.8862842621 -0.1546716174
C -0.1497078618 -0.295738344 -0.0641107325
C  1.3025714022  0.1488689592 -0.1941112562
C -7.1313333287  0.6107170091  0.2322437516
C -8.3854443426  1.1846929943  0.3472508869
C -8.5515902062  2.5594008665  0.4714227906
C -7.4046267408  3.336997173  0.4797842629
C -6.1279206977  2.8034023492  0.3698776869
H -4.8037735901 -0.2378025055  0.0777326106
H -2.7012805758 -0.486249231 -0.3787494987
H -0.9072873841  1.5973773291  0.649563401
H -0.9600107256  1.4215945859 -1.1004355039
H -0.3854910347 -1.0172700083 -0.8551068871
H -0.3049304106 -0.8072718641  0.8907135352
H  1.4809827779  0.643318649 -1.152395649
H  1.983620614 -0.7014516841 -0.1274862274
H  1.5707626621  0.8525516048  0.597956705
H -7.0339537609 -0.4652458416  0.1373936846
Cl -7.5673239135  5.0659909016  0.6409167714
H -5.261119859  3.4455689363  0.3871484863
C -9.6014649164  0.3069968992  0.267835559
H -9.5326214524  3.0069081848  0.5637801168
F -10.6224093676  0.7903374543  0.9873764945
F -10.0451807561  0.1864869547 -0.9965557599
F -9.3593713372 -0.9375536057  0.7064634731


