30

C         -6.05157        1.16882        0.21283
N         -4.76470        0.52765        0.12572
C         -3.52832        1.11443        0.07698
O         -3.39924        2.32775        0.10692
N         -2.41696        0.32905       -0.00475
C         -1.07994        0.89493       -0.05616
C         -0.01925       -0.20836       -0.14519
C          1.38760        0.38028       -0.19647
C         -6.25118        2.57196        0.24896
C         -7.54843        3.11708        0.33506
C         -8.65313        2.25664        0.38566
C         -8.47364        0.87545        0.35067
C         -7.18804        0.33924        0.26493
H         -4.77777       -0.50405        0.09881
H         -2.52789       -0.69693       -0.03014
H         -0.90287        1.49905        0.86109
H         -0.99565        1.55589       -0.94704
H         -0.19063       -0.81400       -1.06173
H         -0.09978       -0.87256        0.74282
H          1.50063        1.03381       -1.08764
H          2.13243       -0.44073       -0.26077
H          1.59119        0.97414        0.72004
H         -5.43246        3.26300        0.21155
Cl        -9.86595       -0.19037        0.41462
H         -7.07450       -0.73772        0.23933
C         -7.78507        4.60819        0.37440
H         -9.65584        2.66184        0.45217
F         -8.57337        4.97697       -0.70062
F         -8.43967        4.93897        1.54706
F         -6.60171        5.32405        0.31607
