30

C         -6.05157        1.16882        0.21283
N         -4.76470        0.52765        0.12572
C         -3.52832        1.11443        0.07698
O         -3.39924        2.32775        0.10692
N         -2.41696        0.32905       -0.00475
C         -1.07994        0.89493       -0.05616
C         -0.01925       -0.20836       -0.14519
C          1.38760        0.38028       -0.19647
C         -7.29250        0.48363        0.23685
C         -8.50889        1.19090        0.32380
C         -8.48671        2.59047        0.38693
C         -7.27540        3.27847        0.36481
C         -6.07307        2.57510        0.27914
H         -4.77777       -0.50405        0.09881
H         -2.52789       -0.69693       -0.03014
H         -0.90287        1.49905        0.86109
H         -0.99565        1.55589       -0.94704
H         -0.19063       -0.81400       -1.06173
H         -0.09978       -0.87256        0.74282
H          1.50063        1.03381       -1.08764
H          2.13243       -0.44073       -0.26077
H          1.59119        0.97414        0.72004
H         -7.35147       -0.58580        0.19132
Cl        -7.26231        5.03120        0.44466
H         -5.14449        3.13265        0.26344
C         -9.84233        0.48228        0.35138
H         -9.41405        3.14690        0.45379
F        -10.50566        0.79655        1.52370
F        -10.60647        0.89861       -0.72370
F         -9.70162       -0.89310        0.28266
