29
0  1
C -5.9326741901  1.48635483  0.2248104074
N -4.6822654012  0.8730132776  0.1116455246
C -3.4498429942  1.4753130369  0.1288760025
O -3.2343118245  2.65455272  0.2539246325
O -2.5048046114  0.5374426302 -0.0172906683
C -1.1471956507  1.0135240061 -0.0222657394
C -0.2405216426 -0.1850177258 -0.1957295961
C  1.2236745838  0.2419837829 -0.2120950208
C -7.0574580463  0.6565481753  0.148158259
C -8.3232867517  1.2032681412  0.2609190724
C -8.5176026508  2.5686229959  0.4446994404
C -7.3891017266  3.3679706851  0.5146720662
C -6.1001571292  2.8606833137  0.4104360812
H -4.6730003195 -0.130862942 -0.0041891574
H -0.953426022  1.5337165519  0.9188621243
H -1.0290596153  1.7308154941 -0.8380471673
H -0.4978555789 -0.6959229902 -1.1276952843
H -0.4215902508 -0.8908358121  0.6196193002
H  1.4267107906  0.9342405092 -1.0332545985
H  1.880625473 -0.6203109769 -0.3365582321
H  1.5034628596  0.7397117756  0.7199290712
H -6.9343267697 -0.4113937353  0.0062436752
Cl -7.5862643821  5.0839281815  0.7487233175
H -5.2471924289  3.5188219179  0.4737216212
C -9.5305572094  0.3197887079  0.1251409002
H -9.5102396193  2.9916347588  0.5343592815
F -10.5070067532  0.6722629101  0.9728356087
F -10.0548682553  0.3848242376 -1.1111382847
F -9.2487038832 -0.9695784569  0.3570273627


