29

C         -6.00716        1.26220        0.19275
N         -4.70062        0.66655        0.09037
C         -3.48584        1.28880        0.08731
O         -3.38313        2.50179        0.17973
O         -2.36670        0.52604       -0.02047
C         -1.08236        1.03251       -0.02869
C         -0.08347       -0.11490       -0.16718
C          1.35269        0.40071       -0.17848
C         -6.24855        2.65468        0.30020
C         -7.56229        3.15650        0.39620
C         -8.64137        2.26262        0.38506
C         -8.42015        0.89086        0.27969
C         -7.11794        0.39769        0.18443
H         -4.66889       -0.36193        0.01003
H         -0.89212        1.57891        0.92180
H         -0.96402        1.73381       -0.88447
H         -0.27977       -0.66265       -1.11454
H         -0.20927       -0.81881        0.68412
H          1.50800        1.09256       -1.03369
H          2.05426       -0.45384       -0.28050
H          1.57847        0.93510        0.76896
H         -5.44909        3.36910        0.31137
Cl        -9.78071       -0.21697        0.26684
H         -6.97084       -0.67244        0.10345
C         -7.84324        4.63593        0.51099
H         -9.65651        2.63434        0.45829
F         -8.62785        5.03881       -0.55443
F         -8.52253        4.88476        1.68983
F         -6.68071        5.38744        0.50798
