32
0  1
C -5.8106977782  1.5115281588  0.2661621377
N -4.5740243033  0.8690449764  0.2382155444
C -3.3358257796  1.4482768966  0.0984245594
O -3.110244324  2.6275137941 -0.0003887662
O -2.4049260966  0.4868871792  0.0872892791
C -1.0452092079  0.9346005131 -0.0630536462
C -0.1554014383 -0.2887141738 -0.0601762068
C  1.3082954518  0.1069467079 -0.2265954893
C -6.9486187211  0.6951571014  0.2950115797
C -8.2202852221  1.2384127666  0.3321064514
C -8.3853920606  2.6316666703  0.3484122791
C -7.2513791944  3.4328107237  0.3095589595
C -5.9712685524  2.8966874698  0.2710278871
H -4.5769663283 -0.140322707  0.2918979073
H -0.8053165758  1.611478374  0.7604490128
H -0.9611489807  1.4928481198 -0.9985354234
H -0.4630953227 -0.9557929512 -0.8701503956
H -0.298121967 -0.8326880629  0.8775732156
H  1.4727719805  0.6340718953 -1.1698954366
H  1.9532855875 -0.7731366232 -0.2229808419
H  1.6380520839  0.7626034243  0.583376435
H -6.8295170367 -0.3818269941  0.2779065066
H -5.1123324515  3.5491380818  0.2457520742
C -9.7321043855  3.3083171395  0.3668268144
C -9.3809863738  0.2709922268  0.3946044078
H -7.3615646966  4.5096912078  0.3179005182
F -10.5862915177  2.730731533  1.2216010335
F -10.3196318802  3.3095581599 -0.8400986455
F -9.6269450474  4.5934245516  0.7369667225
F -9.0140851104 -0.9607626366  0.0081228738
F -10.3933861437  0.6365309284 -0.3976887966
F -9.8649786074  0.1498055486  1.638447449


