40
-1  1
C -5.9529731777  1.2270157277  0.0946359509
N -4.6858622362  0.660339331  0.0302878479
C -3.4768477362  1.3251713465 -0.0402158853
O -3.3797066073  2.5595143785 -0.0600188236
N -2.4078557302  0.510170268 -0.0958784771
C -1.0595567214  1.0522583669 -0.1794181968
C -0.0418733003 -0.0758441052 -0.2377708399
C  1.3781742627  0.469250284 -0.3262055327
C -6.2099097474  2.5708071458  0.3866824801
C -7.5277523903  3.0128820445  0.4398429497
C -8.6132519846  2.1759070662  0.2274263421
C -8.3301732845  0.8447228828 -0.0522226706
C -7.0388469143  0.3612171693 -0.1238435875
H -4.6616763296 -0.3632253082 -0.0836165539
H -2.5240907851 -0.5054531039 -0.0378133536
H -0.8613814702  1.6897723479  0.6882167669
H -0.9705200669  1.6829824366 -1.0693195149
H -0.2559426668 -0.7109852651 -1.1030790297
H -0.1479517585 -0.7050200994  0.6515516052
H  1.5073676425  1.0854741405 -1.2198728513
H  2.109375769 -0.3401161107 -0.3701813466
H  1.6161138248  1.0876867518  0.5432727562
H -5.3987452286  3.257316776  0.5752529667
Cl -9.6574213425 -0.2567770469 -0.3318360508
H -6.8559196901 -0.6837507375 -0.3477669779
C -7.7615447468  4.4503705097  0.7995970704
H -9.6328410553  2.5346660611  0.2739947899
F -9.0131109402  4.8533665023  0.5432686321
F -7.5451130685  4.6794494524  2.110075374
F -6.9399301207  5.2804305248  0.1350360519
O -4.7596856019 -2.1656202543 -0.2947973448
O -2.5754033606 -2.3848513213  0.0869633538
C -3.7227680362 -2.8636985504 -0.0983774015
C -3.90968903 -4.3767584459 -0.0919021836
C -2.6459833241 -5.1813859944  0.1667221886
H -4.3529492518 -4.6463833385 -1.0554544453
H -4.6743330899 -4.5996445435  0.6583301887
H -1.8891033213 -4.9887107597 -0.5962376799
H -2.8642022558 -6.2514953934  0.1588811572
H -2.2108151271 -4.9358311357  1.1375402744


