29

C         -6.44619        1.15519        0.04427
N         -5.15548        0.51971        0.08480
C         -3.92329        1.11047        0.03813
O         -3.79464        2.32059       -0.05177
O         -2.69253        0.23148        0.09421
C         -1.37540        1.01925        0.01905
C         -0.16812        0.07610        0.07920
C          1.14300        0.85235       -0.00275
C         -7.67673        0.48396        0.23063
C         -8.89325        1.17821        0.17622
C         -8.91311        2.56793       -0.06631
C         -7.69168        3.23494       -0.25254
C         -6.48381        2.53899       -0.19848
H         -5.15727       -0.51041        0.15244
H         -1.32463        1.73377        0.87036
H         -1.34534        1.59144       -0.93472
H         -0.21215       -0.64219       -0.76845
H         -0.18796       -0.49567        1.03264
H          1.19898        1.41537       -0.95879
H          1.99771        0.14499        0.04346
H          1.22420        1.56453        0.84588
H         -7.74139       -0.57180        0.41769
Cl       -10.37882        0.26050        0.41918
C        -10.22109        3.32786       -0.12557
H         -7.66046        4.30016       -0.44135
H         -5.56369        3.09078       -0.34701
F        -10.02418        4.67605       -0.37164
F        -11.01138        2.81454       -1.13801
F        -10.88685        3.20145        1.08023
