39
-1  1
C -7.001961791  0.6286751132 -0.0112548131
N -5.7356119312  0.1277698693  0.2653609839
C -4.5613184379  0.6934499287 -0.1083229721
O -4.3978458573  1.7197030026 -0.7387262805
O -3.5334756077 -0.0638367967  0.3356739596
C -2.2317324134  0.3765446157 -0.0277084128
C -7.2395891266  1.8158735731 -0.7213781796
C -8.5443000131  2.2246332448 -0.9420743497
C -9.6380555278  1.4955758571 -0.4809857945
C -9.3809805114  0.3168092231  0.224302823
C -8.0924434545 -0.1199679802  0.4615171483
H -5.690170663 -0.7819629863  0.8042612466
H -6.4193249482  2.4087369444 -1.0942404992
Cl -8.7779062022  3.7134179057 -1.8360999269
C -11.0462367431  1.9398537959 -0.7200782996
H -10.2102927615 -0.2723255424  0.5956842839
H -7.9236310979 -1.0443475222  1.0149684758
F -11.9378241604  1.0839350028 -0.1903238042
F -11.3168883638  3.1442553671 -0.1804307483
F -11.3526228599  2.0376227109 -2.0283023271
O -7.6788682244 -2.822906034  2.062954419
O -5.5725151505 -2.1912391024  1.6114231427
C -6.4446636102 -2.9682860142  2.0908183697
C -5.9171945807 -4.2381019714  2.7900807544
H -6.306399379 -4.2227659772  3.8133435289
H -6.399023775 -5.0933511568  2.3054924718
C -4.4014285392 -4.3843148826  2.7825524567
H -4.021302456 -4.4077101962  1.7598048455
H -3.9296605867 -3.5302737216  3.2712052646
H -4.083911397 -5.2992854409  3.2938594308
C -1.8711396146 -0.0345767267 -1.4463063628
H -1.9909096876 -1.1179734214 -1.5360635489
H -2.5784711551  0.4318275978 -2.1358954116
H -1.5667554089 -0.102002389  0.6940074378
H -2.1626335135  1.4610028634  0.0882679723
C -0.4430526184  0.3779151044 -1.7912572014
H -0.176078529  0.0771121817 -2.8062447115
H -0.3201771101  1.4623216466 -1.7243121997
H  0.2785978079 -0.0810076857 -1.1090631717


