41
-1  1
C -6.3151937735  1.232130766  0.6717491377
N -5.1283007123  0.5036996507  0.7722998435
C -3.9366720646  0.8731328258  0.2224644062
O -3.7035006456  1.9303733715 -0.3321279082
O -3.0325932784 -0.1007417949  0.3836515647
C -1.7166902104  0.1721936648 -0.1463891514
C -0.8114887694 -0.9798237943  0.2250067036
C  0.5988783692 -0.7321765138 -0.2996693058
C -6.3431972909  2.6246470885  0.5641420296
C -7.5809144976  3.2418000455  0.5011616275
C -8.7915882222  2.5710028321  0.552583887
C -8.7195423548  1.1900567088  0.6766834902
C -7.513834871  0.5146560382  0.732657032
H -5.2231558892 -0.4916354966  1.0129612393
H -1.3580961302  1.1106355809  0.2808466142
H -1.7971327192  0.2866729445 -1.2296656767
H -1.2119942587 -1.9071653551 -0.1926109228
H -0.7985146191 -1.089730346  1.3129853079
H  0.6023071135 -0.6343800651 -1.388255547
H  1.2623379269 -1.5575514747 -0.036439141
H  1.020821892  0.1842209643  0.1207255236
H -5.4257521337  3.1924399254  0.546009028
Cl -10.2017523955  0.2779707361  0.7512944099
H -7.4902598603 -0.5658572498  0.8195377443
S -7.616252058  5.0433336434  0.3545771333
H -9.7453999371  3.0785543063  0.5025778748
F -6.4673341846  5.0607914429 -0.7827873586
F -8.7505902431  5.0119999438 -0.7976692066
F -6.4866387724  5.2458679134  1.4934565761
F -8.7690718152  5.1980858284  1.4781758383
F -7.6498701449  6.6558015841  0.2227806651
O -5.3662311365 -2.2069842647 -1.0707441096
O -5.2492041288 -2.311126327  1.1523342902
C -4.8474946369 -2.6282505302 -0.0041475406
C -3.6606067615 -3.5777844811 -0.1335466406
C -2.9131778709 -3.8505425192  1.1627148069
H -2.9948302914 -3.1586124735 -0.8932310446
H -4.0459091488 -4.5099554748 -0.5605417712
H -2.5757511647 -2.9217135086  1.6278444048
H -2.0341179576 -4.4724515775  0.9777498716
H -3.5463703527 -4.3715845584  1.8834642745


