32

C         -5.97772        1.13138        0.22403
N         -4.71245        0.45998        0.12422
C         -3.47593        1.03506        0.09339
O         -3.33858        2.24561        0.15764
N         -2.37247        0.24861       -0.00265
C         -1.04425        0.82868       -0.02894
C          0.02414       -0.25745       -0.14330
C          1.42106        0.35282       -0.16367
C         -7.21577        0.50329        0.52587
C         -8.42008        1.23562        0.61439
C         -8.38273        2.60869        0.39591
C         -7.17391        3.22166        0.10630
C         -5.98678        2.50999        0.02043
H         -4.74470       -0.57270        0.07970
H         -2.48547       -0.77641       -0.05643
H         -0.88286        1.40920        0.90711
H         -0.96597        1.51836       -0.89890
H         -0.13599       -0.83492       -1.07966
H         -0.05900       -0.94734        0.72417
H          1.53217        1.03422       -1.03411
H          2.17663       -0.45574       -0.24371
H          1.60570        0.92326        0.77170
H         -7.28820       -0.54082        0.71135
Cl        -7.14329        4.92268       -0.13453
H         -5.07157        3.05246       -0.20290
S         -9.98144        0.40469        1.02732
H         -9.27651        3.21972        0.45873
F         -9.22163       -0.39656        2.33684
F        -10.41540        1.67990        2.09568
F         -9.58734       -0.87393       -0.03243
F        -10.76257        1.20403       -0.27003
F        -11.45571       -0.38166        1.39189
