31
0  1
C -5.8921296292  1.4679585988  0.3167873105
N -4.6576623639  0.8327469554  0.1776669245
C -3.4119856285  1.4113458249  0.2067153206
O -3.176121148  2.5828801364  0.3603123436
O -2.4881662323  0.4593881702  0.0356436071
C -1.1192808855  0.9046148658  0.0409199368
C -0.2419792039 -0.3103611954 -0.1651945886
C  1.2323278042  0.0805029458 -0.1718380725
C -7.031569102  0.6580475189  0.2498625846
C -8.2739368202  1.2454377585  0.3825295406
C -8.4569759873  2.6049511232  0.5801236622
C -7.3069786519  3.3776985773  0.6414756959
C -6.0321194269  2.8443781225  0.5150423159
H -4.6681182078 -0.1682084131  0.0383264461
H -0.9134395694  1.3951951784  0.9952293796
H -0.986215754  1.6397481328 -0.7563370637
H -0.5125285319 -0.7896452254 -1.1100775747
H -0.4401909176 -1.0328554084  0.6313128051
H  1.4525606179  0.7892525497 -0.9742232136
H  1.8669806821 -0.7945658746 -0.3203795123
H  1.5251014466  0.5452513285  0.7731188657
H -6.9323667348 -0.4097881848  0.096419399
Cl -7.4688545218  5.0928111067  0.8879858467
H -5.1651552958  3.484873535  0.5693299324
S -9.737737482  0.1851407685  0.2935991853
H -9.4374524154  3.0492684351  0.6821191792
F -9.0811987816 -0.9292362761  1.2636279022
F -10.41936446  0.8945141702  1.5730425298
F -9.1723607736 -0.6141107376 -0.9930404242
F -10.5105593914  1.2098474336 -0.6849229883
F -11.0386926344 -0.7586619208  0.2143427246


