42
-1  1
C -6.0393538625  1.0974352731  0.1699921207
N -4.7878956932  0.5039594378  0.0831300475
C -3.5928059775  1.1532726169  0.0474041959
O -3.4052723905  2.3521055751  0.0802263121
O -2.5957755599  0.2557894664 -0.0345878084
C -1.2744560651  0.7929322152 -0.0890345963
C -0.3133428787 -0.3737812477 -0.1811549443
C  1.1313828131  0.1101211169 -0.2474238437
C -6.2539251553  2.4824529858  0.246077281
C -7.5437642704  2.9892295975  0.3352573898
C -8.6518650494  2.1311057108  0.3644620862
C -8.4246372666  0.7585244632  0.2749483061
C -7.1466561856  0.2391008031  0.1788124792
H -4.7690725344 -0.5461273285  0.0544341812
H -1.0897050779  1.393565474  0.8064370769
H -1.1868072098  1.4525931028 -0.9573754955
H -0.5597283824 -0.9665022567 -1.0661868861
H -0.4610300329 -1.0237400146  0.6854694765
H  1.298396957  0.7461938809 -1.1212055771
H  1.8251240114 -0.730334576 -0.3133459759
H  1.3981465332  0.6903449519  0.640338429
H -5.4112888693  3.1551188477  0.2284129811
H -7.0026783094 -0.8392215509  0.1076395185
C -10.0744145723  2.6063426674  0.445569625
C -7.6759970482  4.4888109594  0.438788622
H -9.2638398766  0.0740917139  0.2852956721
F -10.2475406432  3.6015196828  1.3315556291
F -10.9059834232  1.6198949793  0.8221579698
F -10.5465225204  3.0555521727 -0.7335286489
F -6.5664026199  5.1229263668  0.0321587069
F -7.8980125842  4.8975440678  1.7009896326
F -8.6809116565  4.9721465554 -0.3092483915
O -6.8453547713 -2.9417817884 -0.0524378808
O -4.7317870213 -2.2040480821  0.0567311675
C -5.6127562 -3.1064341335  0.0189765867
C -5.1088594982 -4.5613995193  0.0420844783
C -3.6347666337 -4.7229594566  0.3852691914
H -5.3206068936 -4.9819203764 -0.9475331238
H -5.7410431219 -5.1169782435  0.740690332
H -3.0088481157 -4.1747729895 -0.3205606311
H -3.3356482881 -5.7758499939  0.3686704072
H -3.418474056 -4.3248031269  1.3792039009


